LAMMPS (11 Aug 2017)
units real
atom_style full

dimension 3
boundary p p p

bond_style hybrid harmonic
angle_style hybrid harmonic
dihedral_style hybrid multi/harmonic
special_bonds lj 0.0 0.0 0.5 coul 0.0 0.0 0.8333

read_data polymer.lmp
  triclinic box = (-8.86 -12.99 -123.33) to (84.8195 17.1895 1.5512) with tilt (0 0 0)
  reading atoms ...
  430 atoms
  reading velocities ...
  430 velocities
  scanning bonds ...
  scanning angles ...
  scanning dihedrals ...
  reading bonds ...
  431 bonds
  reading angles ...
  796 angles
  reading dihedrals ...
  1115 dihedrals

pair_style lj/cut/coul/long 9.0 9.0
pair_modify tail yes
kspace_style pppm 1e-8

pair_coeff 1 1   0.0860000   3.3996700
pair_coeff 2 2   0.1700000   3.2500000
pair_coeff 3 3   0.1094001   3.3996700
pair_coeff 4 4   0.0860000   3.3996700
pair_coeff 5 5   0.1700000   3.2500000
pair_coeff 6 6   0.0860000   3.3996700
pair_coeff 7 7   0.1700000   3.2500000
pair_coeff 8 8   0.2100000   2.9599200
pair_coeff 9 9   0.0150000   2.5996400
pair_coeff 10 10   0.0157000   2.6495300
pair_coeff 11 11   0.0157000   1.0690800
pair_coeff 12 12   0.0157000   2.4713500
pair_coeff 13 13   0.1700000   3.0000100

pair_modify mix arithmetic

thermo_style custom ebond eangle edihed eimp epair evdwl ecoul elong etail pe

run 0# ---------- Define Settings ---------------------
PPPM initialization ...
  G vector (1/distance) = 0.388336
  grid = 160 72 200
  stencil order = 5
  estimated absolute RMS force accuracy = 4.13754e-06
  estimated relative force accuracy = 1.24601e-08
  3d grid and FFT values/proc = 92610 57600
  update every 1 steps, delay 10 steps, check yes
E_bond E_angle E_dihed E_impro E_pair E_vdwl E_coul E_long E_tail PotEng
Loop time of 8.60145e-05 on 48 procs for 0 steps with 430 atoms

PPPM initialization ...
  G vector (1/distance) = 0.388336
  grid = 160 72 200
  stencil order = 5
  estimated absolute RMS force accuracy = 4.13754e-06
  estimated relative force accuracy = 1.24601e-08
  3d grid and FFT values/proc = 92610 57600
Setting up sd style minimization ...
  Unit style    : real
  Current step  : 0
Step PotEng Lx Ly Lz Prescompute eng all pe/atom
compute eatoms all reduce sum c_eng
# ---------- Run Energy Minimization ---------------------
reset_timestep 0
fix rlx all box/relax iso 0.0 vmax 0.001
thermo 10
thermo_style custom step pe lx ly lz press pxx pyy pzz c_eatoms
min_style sd
minimize 1.0e-4 1.0e-6 1000 10000
PPPM initialization ...
  G vector (1/distance) = 0.388336
  grid = 160 72 200
  stencil order = 5
  estimated absolute RMS force accuracy = 4.13754e-06
  estimated relative force accuracy = 1.24601e-08
  3d grid and FFT values/proc = 92610 57600
Step PotEng Lx Ly Lz Press Pxx Pyy Pzz c_eatoms
0   -797.14984      93.6795      30.1795     124.8812    73.298392    87.123475    76.244714    56.526988   -796.85238
Loop time of 23.6106 on 48 procs for 173 steps with 430 atoms

Minimization stats:
  Stopping criterion = energy tolerance
  Energy initial, next-to-last, final =
  Force two-norm initial, final = 1185.49 241.926
  Force max component initial, final = 1132.26 196.774
  Final line search alpha, max atom move = 9.98656e-06 0.00196509
  Iterations, force evaluations = 173 301

PPPM initialization ...
  G vector (1/distance) = 0.388136
  grid = 160 72 200
  stencil order = 5
  estimated absolute RMS force accuracy = 4.17212e-06
  estimated relative force accuracy = 1.25642e-08
  3d grid and FFT values/proc = 92610 57600
Finding SHAKE clusters ...
PPPM initialization ...
  G vector (1/distance) = 0.388136
  grid = 160 72 200
  stencil order = 5
  estimated absolute RMS force accuracy = 4.17212e-06
  estimated relative force accuracy = 1.25642e-08
  3d grid and FFT values/prwrite_data data.sd.lammps
PPPM initialization ...
  G vector (1/distance) = 0.388136
  grid = 160 72 200
  stencil order = 5
  estimated absolute RMS force accuracy = 4.17212e-06
  estimated relative force accuracy = 1.25642e-08
  3d grid and FFT values/proc = 92610 57600
# ---------- NVE energy minimization---------------------
fix minnve all nve
fix myshk all shake 1e-4 200 0 t 9 10 11 12
timestep 0.1
thermo 500
thermo_style custom step temp pe lx ly lz press pxx pyy pzz c_eatoms
run 5000
PPPM initialization ...
  G vector (1/distance) = 0.388136
  grid = 160 72 200
  stencil order = 5
  estimated absolute RMS force accuracy = 4.17212e-06
  estimated relative force accuracy = 1.25642e-08
  3d grid and FFT values/proc = 92610 57600
Step Temp PotEng Lx Ly Lz Press Pxx Pyy Pzz c_eatoms
173            0   -838.31548    93.965055    30.271494    125.26186     14.50257    22.393412    9.8961775    11.218122   -838.02072
Averages over the last 6 of 12 rows, steps 3000 to 5173:
Temp PotEng Lx Ly Lz Press Pxx Pyy Pzz c_eatoms
34.467 -874.057 93.9651 30.2715 125.262 -6.42584 -5.97351 -1.93196 -11.3721 -873.763
Loop time of 206.595 on 48 procs for 5000 steps with 430 atoms

PPPM initialization ...
  G vector (1/distance) = 0.388136
  grid = 160 72 200
  stencil order = 5
  estimated absolute RMS force accuracy = 4.17212e-06
  estimated relative force accuracy = 1.25642e-08
  3d grid and FFT values/proc = 92610 57600
Finding SHAKE clusters ...
PPPM initialization ...
  G vector (1/distance) = 0.388136
  grid = 160 72 200
  stencil order = 5
  estimated absolute RMS force accuracy = 4.17212e-06
  estimated relative force accuracy = 1.25642e-08
  3d grid and FFT values/proc = 92610 57600
Setting up Verlet run ...
  Unit style    : real
  Current step  : 5173
  Timewrite_restart restart.minnve.lammps
PPPM initialization ...
  G vector (1/distance) = 0.388136
  grid = 160 72 200
  stencil order = 5
  estimated absolute RMS force accuracy = 4.17212e-06
  estimated relative force accuracy = 1.25642e-08
  3d grid and FFT values/proc = 92610 57600
# ---------- NVE equilibration---------------------
#read_restart restart.minnve.lammps
fix minnve all nve
fix myshk all shake 1e-4 200 0 t 9 10 11 12
timestep 1
thermo 500
thermo_style custom step temp pe lx ly lz press pxx pyy pzz c_eatoms
run 50000
PPPM initialization ...
  G vector (1/distance) = 0.388136
  grid = 160 72 200
  stencil order = 5
  estimated absolute RMS force accuracy = 4.17212e-06
  estimated relative force accuracy = 1.25642e-08
  3d grid and FFT values/proc = 92610 57600
Step Temp PotEng Lx Ly Lz Press Pxx Pyy Pzz c_eatoms
5173    35.526946   -875.18245    93.965055    30.271494    125.26186    4.6240227    2.4942608    14.651604    -3.273797   -874.88768
Averages over the last 21 of 42 rows, steps 15500 to 25500:
Temp PotEng Lx Ly Lz Press Pxx Pyy Pzz c_eatoms
39.8731 -880.207 93.9651 30.2715 125.262 -0.894635 -1.60233 -4.25112 3.16954 -879.912
   55000    39.547774   -879.90655    93.965055    30.271494    125.26186    11.301685    6.9898751   -7.919Nghost:    75.625 ave 201 max 0 min

System init for write_restart ...
PPPM initialization ...
  G vector (1/distance) = 0.388136
  grid = 160 72 200
  stencil order = 5
  estimated absolute RMS force accuracy = 4.17212e-06
  estimated relative force accuracy = 1.25642e-08
  3d grid and FFT values/proc = 92610 57600
System init for write_data ...
PPPM initialization ...
  G vector (1/distance) = 0.388136
  grid = 160 72 200
  stencil order = 5
  estimated absolute RMS force accuracy = 4.17212e-06
  estimated relative force accuracy = 1.25642e-08
  3d grid and FFT values/proc = 92610 57600

write_restart restart.nveeq.lammps
PPPM initialization ...
  G vector (1/distance) = 0.388136
  grid = 160 72 200
  stencil order = 5
  estimated absolute RMS force accuracy = 4.17212e-06
  estimated relative force accuracy = 1.25642e-08
  3d grid and FFT values/proc = 92610 57600
write_data data.nveeq.lammps
PPPM initialization ...
  G vector (1/distance) = 0.388136
  grid = 160 72 200
  stencil order = 5
  estimated absolute RMS force accuracy = 4.17212e-06
  estimated relative force accuracy = 1.25642e-08
  3d grid and FFT values/proc = 92610 57600
